*SPEF "ieee 1481-1999"
*DESIGN "top_3d_jscan"
*DATE "11:11:11 Fri 11 11, 1111"
*VENDOR "OpenRCX"
*PROGRAM "Parallel Extraction"
*VERSION "1.0"
*DESIGN_FLOW "NAME_SCOPE LOCAL" "PIN_CAP NONE"
*DIVIDER /
*DELIMITER :
*BUS_DELIMITER []
*T_UNIT 1 NS
*C_UNIT 1 PF
*R_UNIT 1 OHM
*L_UNIT 1 HENRY

*NAME_MAP
*3 fault_flag
*4 reset_n
*5 scan_clk
*6 scan_in
*7 test_enable
*8 GTC\.capture_en
*9 GTC\.cluster_sel\[0\]
*10 GTC\.cluster_sel\[1\]
*11 GTC\.col_addr\[0\]
*12 GTC\.col_addr\[1\]
*13 GTC\.col_addr\[2\]
*14 GTC\.col_addr\[3\]
*15 GTC\.misr_t1
*16 GTC\.misr_t2
*17 GTC\.misr_t3
*18 GTC\.mode_sel\[0\]
*19 GTC\.mode_sel\[1\]
*20 GTC\.shift_en
*21 GTC\.tier_sel\[0\]
*22 GTC\.tier_sel\[1\]
*23 GTC\.tier_sel\[2\]
*24 TIER1\.LC\.scan_out
*25 TIER1\.MSS\.scan_chain\[0\]
*26 TIER1\.MSS\.scan_chain\[1\]
*27 TIER1\.MSS\.scan_chain\[2\]
*28 TIER1\.MSS\.scan_chain\[3\]
*29 TIER1\.MSS\.scan_chain\[4\]
*30 TIER1\.MSS\.scan_chain\[5\]
*31 TIER1\.MSS\.scan_chain\[6\]
*32 TIER1\.MSS\.scan_chain\[7\]
*33 TIER1\.PRAS\.scan_out
*34 TIER1\.tier_sel\[0\]
*35 TIER1\.tier_sel\[1\]
*36 TIER2\.LC\.scan_out
*37 TIER2\.MSS\.scan_chain\[0\]
*38 TIER2\.MSS\.scan_chain\[1\]
*39 TIER2\.MSS\.scan_chain\[2\]
*40 TIER2\.MSS\.scan_chain\[3\]
*41 TIER2\.MSS\.scan_chain\[4\]
*42 TIER2\.MSS\.scan_chain\[5\]
*43 TIER2\.MSS\.scan_chain\[6\]
*44 TIER2\.MSS\.scan_chain\[7\]
*45 TIER2\.PRAS\.scan_out
*46 TIER3\.LC\.scan_out
*47 TIER3\.MSS\.scan_chain\[0\]
*48 TIER3\.MSS\.scan_chain\[1\]
*49 TIER3\.MSS\.scan_chain\[2\]
*50 TIER3\.MSS\.scan_chain\[3\]
*51 TIER3\.MSS\.scan_chain\[4\]
*52 TIER3\.MSS\.scan_chain\[5\]
*53 TIER3\.MSS\.scan_chain\[6\]
*54 TIER3\.MSS\.scan_chain\[7\]
*55 TIER3\.PRAS\.scan_out
*56 _000_
*57 _001_
*58 _002_
*59 _003_
*60 _004_
*61 _005_
*62 _006_
*63 _007_
*64 _008_
*65 _009_
*66 _010_
*67 _011_
*68 _012_
*69 _013_
*70 _014_
*71 _015_
*72 _016_
*73 _017_
*74 _018_
*75 _019_
*76 _020_
*77 _021_
*78 _022_
*79 _023_
*80 _024_
*81 _025_
*82 _026_
*83 _027_
*84 _028_
*85 _029_
*86 _030_
*87 _031_
*88 _032_
*89 _033_
*90 _034_
*91 _035_
*92 _036_
*93 _037_
*94 _038_
*95 _039_
*96 _040_
*97 _041_
*98 _042_
*99 _043_
*100 _044_
*101 _045_
*102 _046_
*103 _047_
*104 _048_
*105 _049_
*106 _050_
*107 _051_
*108 _052_
*109 _053_
*110 _054_
*111 _055_
*112 _056_
*113 _057_
*114 _058_
*115 _059_
*116 _060_
*117 _061_
*118 _062_
*119 _063_
*120 _064_
*121 _065_
*122 _066_
*123 _067_
*124 _068_
*125 _069_
*126 _070_
*127 _071_
*128 _072_
*129 _073_
*130 _074_
*131 _075_
*132 _076_
*133 _077_
*134 _078_
*135 _079_
*136 _080_
*137 _081_
*138 _082_
*139 _083_
*140 _084_
*141 _085_
*142 _086_
*143 _087_
*144 _088_
*145 _089_
*146 _090_
*147 _091_
*148 _092_
*149 _093_
*150 _094_
*151 _095_
*152 _096_
*153 _097_
*154 _098_
*155 _099_
*156 _100_
*157 _101_
*158 _102_
*159 _103_
*160 _104_
*161 _105_
*162 _106_
*163 _107_
*164 _108_
*165 _109_
*166 _110_
*167 _111_
*168 _112_
*169 _113_
*170 _114_
*171 _115_
*172 _116_
*173 _117_
*174 _118_
*175 _119_
*176 capture_en
*177 clknet_0_scan_clk
*178 clknet_2_0__leaf_scan_clk
*179 clknet_2_1__leaf_scan_clk
*180 clknet_2_2__leaf_scan_clk
*181 clknet_2_3__leaf_scan_clk
*182 cluster_sel\[0\]
*183 cluster_sel\[1\]
*184 col_addr\[0\]
*185 col_addr\[1\]
*186 col_addr\[2\]
*187 col_addr\[3\]
*188 mode_sel\[0\]
*189 mode_sel\[1\]
*190 net1
*191 net10
*192 net11
*193 net12
*194 net13
*195 net14
*196 net15
*197 net16
*198 net17
*199 net18
*200 net19
*201 net2
*202 net20
*203 net21
*204 net22
*205 net23
*206 net24
*207 net25
*208 net26
*209 net27
*210 net28
*211 net29
*212 net3
*213 net30
*214 net31
*215 net32
*216 net33
*217 net34
*218 net35
*219 net36
*220 net37
*221 net38
*222 net39
*223 net4
*224 net40
*225 net41
*226 net42
*227 net43
*228 net44
*229 net45
*230 net46
*231 net47
*232 net48
*233 net49
*234 net5
*235 net50
*236 net51
*237 net52
*238 net53
*239 net54
*240 net55
*241 net56
*242 net57
*243 net58
*244 net59
*245 net6
*246 net60
*247 net61
*248 net62
*249 net7
*250 net8
*251 net9
*252 shift_en
*253 test_en
*254 tier_sel\[0\]
*255 tier_sel\[1\]
*256 tsv_scan_in
*257 FILLER_0_0_109
*258 FILLER_0_0_113
*259 FILLER_0_0_125
*260 FILLER_0_0_137
*261 FILLER_0_0_151
*262 FILLER_0_0_159
*263 FILLER_0_0_18
*264 FILLER_0_0_26
*265 FILLER_0_0_29
*266 FILLER_0_0_41
*267 FILLER_0_0_53
*268 FILLER_0_0_57
*269 FILLER_0_0_6
*270 FILLER_0_0_69
*271 FILLER_0_0_81
*272 FILLER_0_0_85
*273 FILLER_0_0_97
*274 FILLER_0_10_107
*275 FILLER_0_10_11
*276 FILLER_0_10_115
*277 FILLER_0_10_138
*278 FILLER_0_10_161
*279 FILLER_0_10_26
*280 FILLER_0_10_3
*281 FILLER_0_10_33
*282 FILLER_0_10_81
*283 FILLER_0_10_85
*284 FILLER_0_11_110
*285 FILLER_0_11_116
*286 FILLER_0_11_138
*287 FILLER_0_11_15
*288 FILLER_0_11_159
*289 FILLER_0_11_27
*290 FILLER_0_11_3
*291 FILLER_0_11_39
*292 FILLER_0_11_51
*293 FILLER_0_11_78
*294 FILLER_0_12_101
*295 FILLER_0_12_113
*296 FILLER_0_12_121
*297 FILLER_0_12_126
*298 FILLER_0_12_136
*299 FILLER_0_12_158
*300 FILLER_0_12_3
*301 FILLER_0_12_37
*302 FILLER_0_12_45
*303 FILLER_0_12_7
*304 FILLER_0_12_83
*305 FILLER_0_13_11
*306 FILLER_0_13_110
*307 FILLER_0_13_113
*308 FILLER_0_13_125
*309 FILLER_0_13_3
*310 FILLER_0_13_49
*311 FILLER_0_13_55
*312 FILLER_0_13_66
*313 FILLER_0_13_76
*314 FILLER_0_14_121
*315 FILLER_0_14_133
*316 FILLER_0_14_139
*317 FILLER_0_14_141
*318 FILLER_0_14_161
*319 FILLER_0_14_27
*320 FILLER_0_14_3
*321 FILLER_0_14_44
*322 FILLER_0_14_74
*323 FILLER_0_15_11
*324 FILLER_0_15_113
*325 FILLER_0_15_125
*326 FILLER_0_15_133
*327 FILLER_0_15_155
*328 FILLER_0_15_161
*329 FILLER_0_15_3
*330 FILLER_0_15_38
*331 FILLER_0_15_50
*332 FILLER_0_15_57
*333 FILLER_0_16_101
*334 FILLER_0_16_122
*335 FILLER_0_16_126
*336 FILLER_0_16_139
*337 FILLER_0_16_161
*338 FILLER_0_16_24
*339 FILLER_0_16_29
*340 FILLER_0_16_3
*341 FILLER_0_16_41
*342 FILLER_0_16_49
*343 FILLER_0_16_71
*344 FILLER_0_16_88
*345 FILLER_0_17_104
*346 FILLER_0_17_111
*347 FILLER_0_17_113
*348 FILLER_0_17_157
*349 FILLER_0_17_161
*350 FILLER_0_17_24
*351 FILLER_0_17_3
*352 FILLER_0_17_36
*353 FILLER_0_17_48
*354 FILLER_0_17_57
*355 FILLER_0_17_61
*356 FILLER_0_17_72
*357 FILLER_0_18_11
*358 FILLER_0_18_121
*359 FILLER_0_18_133
*360 FILLER_0_18_139
*361 FILLER_0_18_152
*362 FILLER_0_18_23
*363 FILLER_0_18_27
*364 FILLER_0_18_29
*365 FILLER_0_18_3
*366 FILLER_0_18_33
*367 FILLER_0_18_45
*368 FILLER_0_18_79
*369 FILLER_0_18_83
*370 FILLER_0_18_85
*371 FILLER_0_18_96
*372 FILLER_0_19_102
*373 FILLER_0_19_110
*374 FILLER_0_19_141
*375 FILLER_0_19_15
*376 FILLER_0_19_153
*377 FILLER_0_19_161
*378 FILLER_0_19_27
*379 FILLER_0_19_3
*380 FILLER_0_19_31
*381 FILLER_0_19_52
*382 FILLER_0_19_66
*383 FILLER_0_19_78
*384 FILLER_0_19_90
*385 FILLER_0_1_109
*386 FILLER_0_1_119
*387 FILLER_0_1_131
*388 FILLER_0_1_143
*389 FILLER_0_1_15
*390 FILLER_0_1_155
*391 FILLER_0_1_161
*392 FILLER_0_1_27
*393 FILLER_0_1_3
*394 FILLER_0_1_39
*395 FILLER_0_1_51
*396 FILLER_0_1_55
*397 FILLER_0_1_77
*398 FILLER_0_1_89
*399 FILLER_0_20_109
*400 FILLER_0_20_113
*401 FILLER_0_20_137
*402 FILLER_0_20_141
*403 FILLER_0_20_15
*404 FILLER_0_20_153
*405 FILLER_0_20_161
*406 FILLER_0_20_24
*407 FILLER_0_20_29
*408 FILLER_0_20_3
*409 FILLER_0_20_35
*410 FILLER_0_20_69
*411 FILLER_0_20_81
*412 FILLER_0_20_85
*413 FILLER_0_20_97
*414 FILLER_0_21_103
*415 FILLER_0_21_121
*416 FILLER_0_21_143
*417 FILLER_0_21_155
*418 FILLER_0_21_161
*419 FILLER_0_21_3
*420 FILLER_0_21_52
*421 FILLER_0_21_57
*422 FILLER_0_21_68
*423 FILLER_0_21_80
*424 FILLER_0_21_97
*425 FILLER_0_22_108
*426 FILLER_0_22_118
*427 FILLER_0_22_141
*428 FILLER_0_22_153
*429 FILLER_0_22_161
*430 FILLER_0_22_29
*431 FILLER_0_22_3
*432 FILLER_0_22_45
*433 FILLER_0_22_7
*434 FILLER_0_22_75
*435 FILLER_0_22_83
*436 FILLER_0_23_15
*437 FILLER_0_23_150
*438 FILLER_0_23_3
*439 FILLER_0_23_57
*440 FILLER_0_23_71
*441 FILLER_0_24_112
*442 FILLER_0_24_136
*443 FILLER_0_24_149
*444 FILLER_0_24_161
*445 FILLER_0_24_21
*446 FILLER_0_24_27
*447 FILLER_0_24_46
*448 FILLER_0_24_83
*449 FILLER_0_24_9
*450 FILLER_0_25_102
*451 FILLER_0_25_110
*452 FILLER_0_25_121
*453 FILLER_0_25_133
*454 FILLER_0_25_145
*455 FILLER_0_25_15
*456 FILLER_0_25_157
*457 FILLER_0_25_161
*458 FILLER_0_25_27
*459 FILLER_0_25_3
*460 FILLER_0_25_47
*461 FILLER_0_25_55
*462 FILLER_0_25_60
*463 FILLER_0_25_69
*464 FILLER_0_25_81
*465 FILLER_0_25_85
*466 FILLER_0_26_110
*467 FILLER_0_26_113
*468 FILLER_0_26_125
*469 FILLER_0_26_137
*470 FILLER_0_26_141
*471 FILLER_0_26_15
*472 FILLER_0_26_153
*473 FILLER_0_26_161
*474 FILLER_0_26_27
*475 FILLER_0_26_29
*476 FILLER_0_26_3
*477 FILLER_0_26_41
*478 FILLER_0_26_53
*479 FILLER_0_26_57
*480 FILLER_0_26_69
*481 FILLER_0_26_81
*482 FILLER_0_26_85
*483 FILLER_0_26_93
*484 FILLER_0_26_98
*485 FILLER_0_2_124
*486 FILLER_0_2_129
*487 FILLER_0_2_136
*488 FILLER_0_2_141
*489 FILLER_0_2_153
*490 FILLER_0_2_161
*491 FILLER_0_2_27
*492 FILLER_0_2_3
*493 FILLER_0_2_33
*494 FILLER_0_2_41
*495 FILLER_0_2_71
*496 FILLER_0_2_82
*497 FILLER_0_2_85
*498 FILLER_0_3_109
*499 FILLER_0_3_138
*500 FILLER_0_3_150
*501 FILLER_0_3_3
*502 FILLER_0_3_39
*503 FILLER_0_3_47
*504 FILLER_0_3_57
*505 FILLER_0_3_67
*506 FILLER_0_4_127
*507 FILLER_0_4_139
*508 FILLER_0_4_141
*509 FILLER_0_4_153
*510 FILLER_0_4_161
*511 FILLER_0_4_26
*512 FILLER_0_4_3
*513 FILLER_0_4_41
*514 FILLER_0_4_74
*515 FILLER_0_4_80
*516 FILLER_0_4_85
*517 FILLER_0_4_9
*518 FILLER_0_5_102
*519 FILLER_0_5_128
*520 FILLER_0_5_140
*521 FILLER_0_5_15
*522 FILLER_0_5_152
*523 FILLER_0_5_160
*524 FILLER_0_5_22
*525 FILLER_0_5_3
*526 FILLER_0_5_34
*527 FILLER_0_5_46
*528 FILLER_0_5_60
*529 FILLER_0_5_70
*530 FILLER_0_5_82
*531 FILLER_0_6_121
*532 FILLER_0_6_133
*533 FILLER_0_6_139
*534 FILLER_0_6_141
*535 FILLER_0_6_15
*536 FILLER_0_6_153
*537 FILLER_0_6_27
*538 FILLER_0_6_29
*539 FILLER_0_6_3
*540 FILLER_0_6_41
*541 FILLER_0_6_51
*542 FILLER_0_6_59
*543 FILLER_0_6_67
*544 FILLER_0_6_79
*545 FILLER_0_6_83
*546 FILLER_0_6_85
*547 FILLER_0_7_104
*548 FILLER_0_7_109
*549 FILLER_0_7_113
*550 FILLER_0_7_125
*551 FILLER_0_7_137
*552 FILLER_0_7_149
*553 FILLER_0_7_15
*554 FILLER_0_7_161
*555 FILLER_0_7_25
*556 FILLER_0_7_3
*557 FILLER_0_7_33
*558 FILLER_0_7_69
*559 FILLER_0_7_81
*560 FILLER_0_7_89
*561 FILLER_0_7_98
*562 FILLER_0_8_101
*563 FILLER_0_8_113
*564 FILLER_0_8_125
*565 FILLER_0_8_136
*566 FILLER_0_8_161
*567 FILLER_0_8_29
*568 FILLER_0_8_3
*569 FILLER_0_8_41
*570 FILLER_0_8_53
*571 FILLER_0_8_59
*572 FILLER_0_8_7
*573 FILLER_0_8_71
*574 FILLER_0_8_83
*575 FILLER_0_8_85
*576 FILLER_0_8_91
*577 FILLER_0_9_108
*578 FILLER_0_9_113
*579 FILLER_0_9_125
*580 FILLER_0_9_159
*581 FILLER_0_9_42
*582 FILLER_0_9_54
*583 FILLER_0_9_57
*584 FILLER_0_9_64
*585 FILLER_0_9_82
*586 PHY_0
*587 PHY_1
*588 PHY_10
*589 PHY_11
*590 PHY_12
*591 PHY_13
*592 PHY_14
*593 PHY_15
*594 PHY_16
*595 PHY_17
*596 PHY_18
*597 PHY_19
*598 PHY_2
*599 PHY_20
*600 PHY_21
*601 PHY_22
*602 PHY_23
*603 PHY_24
*604 PHY_25
*605 PHY_26
*606 PHY_27
*607 PHY_28
*608 PHY_29
*609 PHY_3
*610 PHY_30
*611 PHY_31
*612 PHY_32
*613 PHY_33
*614 PHY_34
*615 PHY_35
*616 PHY_36
*617 PHY_37
*618 PHY_38
*619 PHY_39
*620 PHY_4
*621 PHY_40
*622 PHY_41
*623 PHY_42
*624 PHY_43
*625 PHY_44
*626 PHY_45
*627 PHY_46
*628 PHY_47
*629 PHY_48
*630 PHY_49
*631 PHY_5
*632 PHY_50
*633 PHY_51
*634 PHY_52
*635 PHY_53
*636 PHY_6
*637 PHY_7
*638 PHY_8
*639 PHY_9
*640 TAP_100
*641 TAP_101
*642 TAP_102
*643 TAP_103
*644 TAP_104
*645 TAP_105
*646 TAP_106
*647 TAP_107
*648 TAP_108
*649 TAP_109
*650 TAP_110
*651 TAP_111
*652 TAP_112
*653 TAP_113
*654 TAP_114
*655 TAP_115
*656 TAP_116
*657 TAP_117
*658 TAP_118
*659 TAP_119
*660 TAP_120
*661 TAP_121
*662 TAP_122
*663 TAP_123
*664 TAP_124
*665 TAP_125
*666 TAP_54
*667 TAP_55
*668 TAP_56
*669 TAP_57
*670 TAP_58
*671 TAP_59
*672 TAP_60
*673 TAP_61
*674 TAP_62
*675 TAP_63
*676 TAP_64
*677 TAP_65
*678 TAP_66
*679 TAP_67
*680 TAP_68
*681 TAP_69
*682 TAP_70
*683 TAP_71
*684 TAP_72
*685 TAP_73
*686 TAP_74
*687 TAP_75
*688 TAP_76
*689 TAP_77
*690 TAP_78
*691 TAP_79
*692 TAP_80
*693 TAP_81
*694 TAP_82
*695 TAP_83
*696 TAP_84
*697 TAP_85
*698 TAP_86
*699 TAP_87
*700 TAP_88
*701 TAP_89
*702 TAP_90
*703 TAP_91
*704 TAP_92
*705 TAP_93
*706 TAP_94
*707 TAP_95
*708 TAP_96
*709 TAP_97
*710 TAP_98
*711 TAP_99
*712 _120_
*713 _121_
*714 _122_
*715 _123_
*716 _124_
*717 _125_
*718 _126_
*719 _127_
*720 _128_
*721 _129_
*722 _130_
*723 _131_
*724 _132_
*725 _133_
*726 _134_
*727 _135_
*728 _136_
*729 _137_
*730 _138_
*731 _139_
*732 _140_
*733 _141_
*734 _142_
*735 _143_
*736 _144_
*737 _145_
*738 _146_
*739 _147_
*740 _148_
*741 _149_
*742 _150_
*743 _151_
*744 _152_
*745 _153_
*746 _154_
*747 _155_
*748 _156_
*749 _157_
*750 _158_
*751 _159_
*752 _160_
*753 _161_
*754 _162_
*755 _163_
*756 _164_
*757 _165_
*758 _166_
*759 _167_
*760 _168_
*761 _169_
*762 _170_
*763 _171_
*764 _172_
*765 _173_
*766 _174_
*767 _175_
*768 _176_
*769 _177_
*770 _178_
*771 _179_
*772 _180_
*773 _181_
*774 _182_
*775 _183_
*776 _184_
*777 _185_
*778 _186_
*779 _187_
*780 _188_
*781 _189_
*782 _190_
*783 _191_
*784 _192_
*785 _193_
*786 _194_
*787 _195_
*788 _196_
*789 _197_
*790 _198_
*791 _199_
*792 _200_
*793 _201_
*794 _202_
*795 _203_
*796 _204_
*797 _205_
*798 _206_
*799 _207_
*800 _208_
*801 _209_
*802 _210_
*803 _211_
*804 _212_
*805 _213_
*806 _214_
*807 _215_
*808 _216_
*809 _217_
*810 _218_
*811 _219_
*812 _220_
*813 _221_
*814 _222_
*815 _223_
*816 _224_
*817 _225_
*818 _226_
*819 _227_
*820 _228_
*821 _229_
*822 _230_
*823 _231_
*824 _232_
*825 _233_
*826 _234_
*827 _235_
*828 _236_
*829 _237_
*830 _238_
*831 _239_
*832 _240_
*833 _241_
*834 _242_
*835 _243_
*836 _244_
*837 _245_
*838 _246_
*839 _247_
*840 _248_
*841 _249_
*842 _250_
*843 _251_
*844 _252_
*845 _253_
*846 _254_
*847 _255_
*848 _256_
*849 _257_
*850 _258_
*851 _259_
*852 _260_
*853 _261_
*854 _262_
*855 _263_
*856 _264_
*857 _265_
*858 _266_
*859 _267_
*860 _268_
*861 _269_
*862 _270_
*863 _271_
*864 _272_
*865 _273_
*866 _274_
*867 _275_
*868 _276_
*869 _277_
*870 _278_
*871 _279_
*872 _280_
*873 _281_
*874 _282_
*875 _283_
*876 _284_
*877 _285_
*878 _286_
*879 _287_
*880 _288_
*881 _289_
*882 _290_
*883 _291_
*884 _292_
*885 _293_
*886 _294_
*887 _295_
*888 _296_
*889 _297_
*890 _298_
*891 _299_
*892 _300_
*893 _301_
*894 _302_
*895 clkbuf_0_scan_clk
*896 clkbuf_2_0__f_scan_clk
*897 clkbuf_2_1__f_scan_clk
*898 clkbuf_2_2__f_scan_clk
*899 clkbuf_2_3__f_scan_clk
*900 fanout10
*901 fanout5
*902 fanout6
*903 fanout7
*904 fanout8
*905 fanout9
*906 hold1
*907 hold10
*908 hold11
*909 hold12
*910 hold13
*911 hold14
*912 hold15
*913 hold16
*914 hold17
*915 hold18
*916 hold19
*917 hold2
*918 hold20
*919 hold21
*920 hold22
*921 hold23
*922 hold24
*923 hold25
*924 hold26
*925 hold27
*926 hold28
*927 hold29
*928 hold3
*929 hold30
*930 hold31
*931 hold32
*932 hold33
*933 hold34
*934 hold35
*935 hold36
*936 hold37
*937 hold38
*938 hold39
*939 hold4
*940 hold40
*941 hold41
*942 hold42
*943 hold43
*944 hold44
*945 hold45
*946 hold46
*947 hold47
*948 hold48
*949 hold49
*950 hold5
*951 hold50
*952 hold51
*953 hold52
*954 hold6
*955 hold7
*956 hold8
*957 hold9
*958 input1
*959 input2
*960 input3
*961 output4

*PORTS
fault_flag O
reset_n I
scan_clk I
scan_in I
test_enable I

*D_NET *3 0.000672235
*CONN
*P fault_flag O
*I *961:X O *D sky130_fd_sc_hd__clkbuf_4
*CAP
1 fault_flag 0.000327452
2 *961:X 0.000327452
3 fault_flag *223:27 1.73315e-05
*RES
1 *961:X fault_flag 48.108 
*END

*D_NET *4 0.00150771
*CONN
*P reset_n I
*I *958:A I *D sky130_fd_sc_hd__buf_1
*CAP
1 reset_n 0.000753856
2 *958:A 0
3 *4:9 0.000753856
*RES
1 reset_n *4:9 30.9914 
2 *4:9 *958:A 23 
*END

*D_NET *5 0.00675283
*CONN
*P scan_clk I
*I *895:A I *D sky130_fd_sc_hd__clkbuf_16
*CAP
1 scan_clk 0.00337022
2 *895:A 0
3 *5:19 0.00337022
4 *5:19 *177:56 1.23773e-05
*RES
1 scan_clk *5:19 47.2469 
2 *5:19 *895:A 23 
*END

*D_NET *6 0.00117862
*CONN
*P scan_in I
*I *959:A I *D sky130_fd_sc_hd__clkbuf_2
*CAP
1 scan_in 0.000589311
2 *959:A 0
3 *6:11 0.000589311
4 *6:11 *201:10 0
*RES
1 scan_in *6:11 28.1121 
2 *6:11 *959:A 23 
*END

*D_NET *7 0.00085858
*CONN
*P test_enable I
*I *960:A I *D sky130_fd_sc_hd__dlymetal6s2s_1
*CAP
1 test_enable 0.00042929
2 *960:A 0.00042929
*RES
1 test_enable *960:A 47.4664 
*END

*D_NET *8 0.0114966
*CONN
*I *768:D1 I *D sky130_fd_sc_hd__o2111a_1
*I *798:D1 I *D sky130_fd_sc_hd__o2111a_1
*I *825:C I *D sky130_fd_sc_hd__and3_1
*I *888:A I *D sky130_fd_sc_hd__buf_2
*I *718:A0 I *D sky130_fd_sc_hd__mux2_1
*I *832:Q O *D sky130_fd_sc_hd__dfrtp_1
*CAP
1 *768:D1 0.000110163
2 *798:D1 0
3 *825:C 1.68839e-05
4 *888:A 0
5 *718:A0 0.000331383
6 *832:Q 0.000225744
7 *8:73 0.000254984
8 *8:61 0.000462939
9 *8:48 0.00131577
10 *8:40 0.00320083
11 *8:23 0.00183704
12 *8:14 0.000364265
13 *8:12 0.000225744
14 *768:D1 *798:A1 3.85998e-05
15 *768:D1 *897:A 5.3304e-05
16 *825:C *826:A1 5.25291e-06
17 *8:12 *892:A 0
18 *8:12 *248:10 2.18926e-05
19 *8:40 *741:A0 6.24432e-05
20 *8:40 *804:C 2.79603e-05
21 *8:40 *841:RESET_B 0
22 *8:40 *868:CLK 0.000316346
23 *8:40 *18:14 0
24 *8:40 *19:8 0.000138151
25 *8:40 *117:23 0.000137162
26 *8:40 *177:37 0.000230274
27 *8:40 *178:10 8.49679e-05
28 *8:48 *767:B1 0.000162249
29 *8:48 *767:B2 0.000292289
30 *8:48 *797:B2 0.000175903
31 *8:48 *117:57 6.28488e-05
32 *8:48 *137:29 0.000400944
33 *8:61 *897:A 0.00012482
34 *8:61 *44:25 0.000138718
35 *8:61 *117:23 5.94125e-05
36 *8:61 *177:37 1.5037e-05
37 *8:73 *798:C1 0.000100061
38 *8:73 *897:A 0.000226103
39 *8:73 *44:25 2.64506e-05
40 *8:73 *139:12 0.000188927
41 *8:73 *156:10 6.07306e-05
*RES
1 *832:Q *8:12 42.205 
2 *8:12 *8:14 15 
3 *8:14 *718:A0 27.9093 
4 *8:14 *8:23 0.621429 
5 *8:23 *888:A 23 
6 *8:23 *8:40 44.435 
7 *8:40 *8:48 48.9329 
8 *8:48 *825:C 38.2279 
9 *8:40 *8:61 17.9621 
10 *8:61 *8:73 35.8 
11 *8:73 *798:D1 23 
12 *8:61 *768:D1 24.9471 
*END

*D_NET *9 0.00397633
*CONN
*I *890:A I *D sky130_fd_sc_hd__buf_2
*I *721:B I *D sky130_fd_sc_hd__or2_1
*I *722:B I *D sky130_fd_sc_hd__nand2_1
*I *834:Q O *D sky130_fd_sc_hd__dfrtp_1
*CAP
1 *890:A 0
2 *721:B 0.000369074
3 *722:B 0.000120967
4 *834:Q 0
5 *9:40 0.00040946
6 *9:10 0.00114372
7 *9:4 0.00106314
8 *721:B *61:8 0.000113244
9 *721:B *178:71 0.000192342
10 *722:B *722:A 5.55743e-06
11 *722:B *111:6 7.17698e-05
12 *9:10 *834:CLK 7.64972e-05
13 *9:10 *834:RESET_B 3.18192e-05
14 *9:10 *61:8 1.0092e-05
15 *9:10 *178:71 1.7403e-05
16 *9:40 *891:A 0.000134776
17 *9:40 *928:A 3.90213e-05
18 *9:40 *105:111 9.98726e-05
19 *9:40 *190:16 7.75677e-05
*RES
1 *834:Q *9:4 23 
2 *9:4 *9:10 24.425 
3 *9:10 *722:B 40.0714 
4 *9:10 *721:B 45.9543 
5 *9:4 *9:40 36.6907 
6 *9:40 *890:A 23 
*END

*D_NET *10 0.0019108
*CONN
*I *928:A I *D sky130_fd_sc_hd__dlygate4sd3_1
*I *891:A I *D sky130_fd_sc_hd__buf_2
*I *835:Q O *D sky130_fd_sc_hd__dfrtp_1
*CAP
1 *928:A 0.000116893
2 *891:A 0.000201223
3 *835:Q 8.35285e-05
4 *10:10 0.000401644
5 *891:A *105:111 0.000141817
6 *891:A *190:16 1.98991e-05
7 *928:A *838:RESET_B 5.3304e-05
8 *928:A *901:A 2.64616e-05
9 *928:A *110:10 0.000195316
10 *928:A *190:16 3.26224e-05
11 *928:A *249:6 6.17437e-06
12 *928:A *249:19 6.2088e-05
13 *10:10 *723:B 0.000153047
14 *10:10 *105:24 0.000142678
15 *10:10 *105:26 0.000100311
16 *9:40 *891:A 0.000134776
17 *9:40 *928:A 3.90213e-05
*RES
1 *835:Q *10:10 41.0243 
2 *10:10 *891:A 42.06 
3 *10:10 *928:A 41.5836 
*END

*D_NET *11 0.00303368
*CONN
*I *770:A I *D sky130_fd_sc_hd__xnor2_1
*I *727:B I *D sky130_fd_sc_hd__and3_1
*I *907:A I *D sky130_fd_sc_hd__dlygate4sd3_1
*I *881:A I *D sky130_fd_sc_hd__buf_2
*I *836:Q O *D sky130_fd_sc_hd__dfrtp_1
*CAP
1 *770:A 0.000421626
2 *727:B 4.84653e-05
3 *907:A 0
4 *881:A 0.000359962
5 *836:Q 0.000298519
6 *11:30 0.000701856
7 *11:12 0.000359962
8 *11:10 0.000530283
9 *727:B *884:A 1.83408e-05
10 *770:A *13:14 0
11 *881:A *204:6 0.000103415
12 *11:10 *105:18 0.000191255
*RES
1 *836:Q *11:10 42.3086 
2 *11:10 *11:12 15 
3 *11:12 *881:A 29.8564 
4 *11:12 *907:A 23 
5 *11:10 *11:30 3.66643 
6 *11:30 *727:B 38.6214 
7 *11:30 *770:A 44.7736 
*END

*D_NET *12 0.00216342
*CONN
*I *727:C I *D sky130_fd_sc_hd__and3_1
*I *909:A I *D sky130_fd_sc_hd__dlygate4sd3_1
*I *883:A I *D sky130_fd_sc_hd__buf_2
*I *837:Q O *D sky130_fd_sc_hd__dfrtp_1
*CAP
1 *727:C 0.000358454
2 *909:A 0
3 *883:A 3.27177e-05
4 *837:Q 8.05953e-05
5 *12:19 0.000502989
6 *12:8 0.000257847
7 *727:C *727:A 0.000322485
8 *727:C *884:A 5.1331e-05
9 *727:C *212:35 0.000141029
10 *883:A *105:18 2.95423e-05
11 *12:8 *212:24 0.000141554
12 *12:19 *212:24 1.0092e-05
13 *12:19 *212:35 0.000234784
*RES
1 *837:Q *12:8 39.9057 
2 *12:8 *883:A 38.6214 
3 *12:8 *12:19 3.31429 
4 *12:19 *909:A 38 
5 *12:19 *727:C 44.4214 
*END

*D_NET *13 0.00291482
*CONN
*I *884:A I *D sky130_fd_sc_hd__buf_2
*I *770:B I *D sky130_fd_sc_hd__xnor2_1
*I *912:A I *D sky130_fd_sc_hd__dlygate4sd3_1
*I *730:A I *D sky130_fd_sc_hd__and2_1
*I *838:Q O *D sky130_fd_sc_hd__dfrtp_1
*CAP
1 *884:A 0.000173025
2 *770:B 0.000189239
3 *912:A 0.000114184
4 *730:A 5.029e-05
5 *838:Q 0
6 *13:16 0.000164474
7 *13:14 0.000595197
8 *13:4 0.000578983
9 *730:A *731:A 0.000100223
10 *730:A *731:B 0.000102971
11 *730:A *116:8 2.50118e-05
12 *730:A *190:33 0.000278964
13 *770:B *234:60 0
14 *884:A *727:A 5.79559e-05
15 *884:A *113:8 3.26241e-05
16 *912:A *731:A 5.56356e-05
17 *912:A *190:33 0.000306735
18 *13:14 *113:8 1.96297e-05
19 *727:B *884:A 1.83408e-05
20 *727:C *884:A 5.1331e-05
21 *770:A *13:14 0
*RES
1 *838:Q *13:4 23 
2 *13:4 *13:14 20.6757 
3 *13:14 *13:16 15 
4 *13:16 *730:A 26.0036 
5 *13:16 *912:A 26.48 
6 *13:14 *770:B 41.3143 
7 *13:4 *884:A 27.205 
*END

*D_NET *14 0.00107389
*CONN
*I *885:A I *D sky130_fd_sc_hd__buf_2
*I *955:A I *D sky130_fd_sc_hd__dlygate4sd3_1
*I *736:A I *D sky130_fd_sc_hd__nand2_1
*I *839:Q O *D sky130_fd_sc_hd__dfrtp_1
*CAP
1 *885:A 8.14171e-05
2 *955:A 0
3 *736:A 0
4 *839:Q 0.000109834
5 *14:21 0.000238744
6 *14:14 0.000145798
7 *14:6 0.000412959
8 *14:14 *115:34 8.51432e-05
9 *14:14 *140:8 0
*RES
1 *839:Q *14:6 24.5743 
2 *14:6 *14:14 33.1071 
3 *14:14 *736:A 23 
4 *14:6 *14:21 2.52714 
5 *14:21 *955:A 23 
6 *14:21 *885:A 24.595 
*END

*D_NET *15 0.0021387
*CONN
*I *917:A I *D sky130_fd_sc_hd__dlygate4sd3_1
*I *746:B I *D sky130_fd_sc_hd__or3_1
*I *854:Q O *D sky130_fd_sc_hd__dfrtp_1
*CAP
1 *917:A 3.65489e-05
2 *746:B 0.000472385
3 *854:Q 7.99533e-05
4 *15:12 0.000632606
5 *15:8 0.000203625
6 *746:B *769:A 1.98161e-05
7 *746:B *769:B 0.000193485
8 *746:B *17:14 5.41288e-05
9 *746:B *78:10 0.000143655
10 *746:B *126:16 3.40295e-05
11 *746:B *139:12 9.78729e-06
12 *917:A *139:12 0.000102382
13 *15:8 *866:RESET_B 0
14 *15:8 *902:A 0
15 *15:12 *139:12 0.000156302
*RES
1 *854:Q *15:8 39.2014 
2 *15:8 *15:12 17.0507 
3 *15:12 *746:B 31.9071 
4 *15:12 *917:A 24.4707 
*END

*D_NET *16 0.00210364
*CONN
*I *906:A I *D sky130_fd_sc_hd__dlygate4sd3_1
*I *746:A I *D sky130_fd_sc_hd__or3_1
*I *866:Q O *D sky130_fd_sc_hd__dfrtp_1
*CAP
1 *906:A 0
2 *746:A 0
3 *866:Q 0
4 *16:27 0.000757176
5 *16:12 0.000271221
6 *16:4 0.0010284
7 *16:12 *17:14 4.23714e-05
8 *16:27 *866:RESET_B 0
9 *16:27 *902:A 0
10 *16:27 *196:10 4.46957e-06
11 *16:27 *249:19 0
*RES
1 *866:Q *16:4 23 
2 *16:4 *16:12 33.9564 
3 *16:12 *746:A 23 
4 *16:4 *16:27 39.8186 
5 *16:27 *906:A 23 
*END

*D_NET *17 0.00246901
*CONN
*I *939:A I *D sky130_fd_sc_hd__dlygate4sd3_1
*I *746:C I *D sky130_fd_sc_hd__or3_1
*I *877:Q O *D sky130_fd_sc_hd__dfrtp_1
*CAP
1 *939:A 0.000584307
2 *746:C 0
3 *877:Q 0.000187917
4 *17:14 0.000288366
5 *17:6 0.00106059
6 *939:A *877:CLK 3.52233e-06
7 *939:A *877:D 0.000144901
8 *939:A *877:RESET_B 4.87802e-05
9 *17:14 *105:94 0
10 *17:14 *126:16 5.41288e-05
11 *746:B *17:14 5.41288e-05
12 *16:12 *17:14 4.23714e-05
*RES
1 *877:Q *17:6 25.5271 
2 *17:6 *17:14 35.8207 
3 *17:14 *746:C 23 
4 *17:6 *939:A 31.6171 
*END

*D_NET *18 0.00980274
*CONN
*I *740:B I *D sky130_fd_sc_hd__and2_1
*I *743:A_N I *D sky130_fd_sc_hd__and3b_1
*I *886:A I *D sky130_fd_sc_hd__buf_2
*I *801:B I *D sky130_fd_sc_hd__or3_1
*I *734:B I *D sky130_fd_sc_hd__or2_2
*I *766:B_N I *D sky130_fd_sc_hd__or2b_1
*I *737:A1 I *D sky130_fd_sc_hd__mux2_1
*I *774:A_N I *D sky130_fd_sc_hd__and3b_1
*I *840:Q O *D sky130_fd_sc_hd__dfrtp_2
*CAP
1 *740:B 7.22114e-05
2 *743:A_N 0
3 *886:A 0.00039691
4 *801:B 0
5 *734:B 0
6 *766:B_N 1.96784e-05
7 *737:A1 0
8 *774:A_N 0
9 *840:Q 0
10 *18:87 0.000513448
11 *18:80 0.000539183
12 *18:64 0.000758316
13 *18:55 0.000281857
14 *18:49 0.000339321
15 *18:40 0.00058815
16 *18:26 0.000339035
17 *18:14 0.000620642
18 *18:4 0.000762232
19 *740:B *739:A 0.000227208
20 *740:B *122:10 5.45541e-05
21 *766:B_N *19:21 1.24376e-05
22 *766:B_N *19:32 4.08664e-05
23 *886:A *774:C 0.000115052
24 *886:A *951:A 0.000223687
25 *886:A *24:14 4.2712e-05
26 *886:A *108:100 9.41704e-05
27 *886:A *118:12 0.000246748
28 *886:A *118:40 0
29 *886:A *159:10 0
30 *886:A *246:8 8.85189e-05
31 *18:14 *737:S 2.82371e-05
32 *18:14 *841:RESET_B 0.000242563
33 *18:14 *118:40 0.000181794
34 *18:26 *737:S 4.7058e-05
35 *18:26 *738:A 5.90675e-06
36 *18:26 *840:RESET_B 0.000186133
37 *18:26 *865:RESET_B 0
38 *18:26 *107:63 0
39 *18:26 *118:40 5.79559e-05
40 *18:26 *249:25 4.94226e-05
41 *18:40 *741:A1 7.48414e-05
42 *18:40 *741:S 0.000103177
43 *18:40 *19:21 1.43918e-05
44 *18:49 *739:A 4.17736e-05
45 *18:49 *19:32 0.000139357
46 *18:55 *797:B2 1.03934e-05
47 *18:55 *19:36 0.000209823
48 *18:55 *19:51 1.01436e-05
49 *18:55 *108:66 0
50 *18:64 *137:29 0.000393287
51 *18:64 *177:10 0.00014196
52 *18:64 *177:50 0.000251327
53 *18:80 *801:A 0.000407054
54 *18:80 *118:12 0.000113126
55 *18:80 *121:55 6.19753e-05
56 *18:80 *159:10 0.000443232
57 *18:80 *175:14 4.43141e-05
58 *18:80 *191:108 2.50227e-05
59 *18:87 *118:12 8.21866e-05
60 *18:87 *159:10 5.93485e-05
61 *8:40 *18:14 0
*RES
1 *840:Q *18:4 23 
2 *18:4 *18:14 36.2143 
3 *18:14 *18:26 37.4157 
4 *18:26 *774:A_N 23 
5 *18:14 *737:A1 23 
6 *18:4 *18:40 6.71143 
7 *18:40 *766:B_N 23.6214 
8 *18:40 *18:49 2.05071 
9 *18:49 *18:55 33.3143 
10 *18:55 *734:B 23 
11 *18:55 *18:64 19.4329 
12 *18:64 *18:80 27.2629 
13 *18:80 *801:B 23 
14 *18:64 *18:87 2.61 
15 *18:87 *886:A 48.4607 
16 *18:87 *743:A_N 38 
17 *18:49 *740:B 25.5271 
*END

*D_NET *19 0.00579927
*CONN
*I *739:A I *D sky130_fd_sc_hd__inv_2
*I *774:C I *D sky130_fd_sc_hd__and3b_1
*I *887:A I *D sky130_fd_sc_hd__buf_2
*I *743:C I *D sky130_fd_sc_hd__and3b_1
*I *734:A I *D sky130_fd_sc_hd__or2_2
*I *766:A I *D sky130_fd_sc_hd__or2b_1
*I *741:A1 I *D sky130_fd_sc_hd__mux2_1
*I *841:Q O *D sky130_fd_sc_hd__dfrtp_2
*CAP
1 *739:A 0.000215091
2 *774:C 0.000501548
3 *887:A 0
4 *743:C 0.000130624
5 *734:A 1.50079e-05
6 *766:A 8.77424e-05
7 *741:A1 6.19343e-05
8 *841:Q 6.13117e-05
9 *19:64 0.000746858
10 *19:51 0.000569865
11 *19:36 0.000320587
12 *19:32 0.000397297
13 *19:21 0.000210087
14 *19:10 0.000113721
15 *19:8 6.13117e-05
16 *734:A *137:29 5.50049e-05
17 *734:A *177:10 5.50049e-05
18 *739:A *740:A 5.50106e-05
19 *739:A *121:16 1.79175e-05
20 *739:A *121:38 5.12055e-06
21 *739:A *121:55 8.95517e-06
22 *739:A *122:10 1.46594e-05
23 *739:A *137:10 2.64616e-05
24 *741:A1 *741:S 5.67058e-05
25 *743:C *768:C1 0.000183733
26 *774:C *774:B 8.06804e-06
27 *774:C *780:A 0.000101764
28 *774:C *118:26 9.67842e-05
29 *774:C *118:40 0.000184212
30 *19:8 *117:23 0.000138151
31 *19:32 *137:10 4.9662e-05
32 *19:36 *797:B2 0.000157384
33 *19:36 *137:10 2.24973e-05
34 *19:51 *897:A 0
35 *19:51 *108:66 0
36 *19:51 *108:80 4.21594e-06
37 *19:51 *177:10 6.12496e-06
38 *19:51 *177:37 3.35885e-06
39 *19:64 *44:25 0
40 *19:64 *108:80 3.14377e-05
41 *19:64 *108:100 0
42 *19:64 *124:10 0
43 *740:B *739:A 0.000227208
44 *766:B_N *19:21 1.24376e-05
45 *766:B_N *19:32 4.08664e-05
46 *886:A *774:C 0.000115052
47 *8:40 *19:8 0.000138151
48 *18:40 *741:A1 7.48414e-05
49 *18:40 *19:21 1.43918e-05
50 *18:49 *739:A 4.17736e-05
51 *18:49 *19:32 0.000139357
52 *18:55 *19:36 0.000209823
53 *18:55 *19:51 1.01436e-05
*RES
1 *841:Q *19:8 39.9057 
2 *19:8 *19:10 15 
3 *19:10 *741:A1 24.5743 
4 *19:10 *19:21 1.11857 
5 *19:21 *766:A 24.4707 
6 *19:21 *19:32 2.05071 
7 *19:32 *19:36 17.9621 
8 *19:36 *734:A 38.6214 
9 *19:36 *19:51 3.14857 
10 *19:51 *743:C 40.0507 
11 *19:51 *19:64 19.0186 
12 *19:64 *887:A 23 
13 *19:64 *774:C 32.6943 
14 *19:32 *739:A 28.075 
*END

*D_NET *20 0.00230019
*CONN
*I *892:A I *D sky130_fd_sc_hd__buf_2
*I *953:A I *D sky130_fd_sc_hd__dlygate4sd3_1
*I *954:A I *D sky130_fd_sc_hd__dlygate4sd3_1
*I *833:Q O *D sky130_fd_sc_hd__dfrtp_1
*CAP
1 *892:A 0.000105348
2 *953:A 0
3 *954:A 0
4 *833:Q 0
5 *20:27 0.000529206
6 *20:14 0.000211897
7 *20:4 0.000635754
8 *20:14 *839:RESET_B 5.3304e-05
9 *20:14 *178:69 5.50106e-05
10 *20:14 *234:86 6.16531e-05
11 *20:14 *234:98 8.85189e-05
12 *20:14 *249:19 0
13 *20:27 *178:14 0.000278634
14 *20:27 *249:19 0.000280866
15 *8:12 *892:A 0
*RES
1 *833:Q *20:4 23 
2 *20:4 *20:14 33.625 
3 *20:14 *954:A 23 
4 *20:4 *20:27 38.0993 
5 *20:27 *953:A 23 
6 *20:27 *892:A 24.595 
*END

*D_NET *21 0.0043015
*CONN
*I *715:A2 I *D sky130_fd_sc_hd__a211o_1
*I *908:A I *D sky130_fd_sc_hd__dlygate4sd3_1
*I *716:B I *D sky130_fd_sc_hd__and2_2
*I *880:Q O *D sky130_fd_sc_hd__dfstp_1
*CAP
1 *715:A2 0.000328991
2 *908:A 0.000101712
3 *716:B 0.000393885
4 *880:Q 0.000552621
5 *21:10 0.000554389
6 *21:8 0.000940404
7 *715:A2 *35:8 0.00022052
8 *715:A2 *56:8 0.000101958
9 *715:A2 *250:67 2.55628e-05
10 *716:B *35:8 8.88885e-05
11 *716:B *212:14 0.000317553
12 *716:B *212:16 0.00010018
13 *908:A *889:A 1.24376e-05
14 *21:8 *842:CLK 6.44069e-05
15 *21:8 *842:D 0.000204625
16 *21:8 *108:18 0.000207618
17 *21:10 *35:8 8.57485e-05
*RES
1 *880:Q *21:8 46.4825 
2 *21:8 *21:10 1.20143 
3 *21:10 *716:B 46.0993 
4 *21:10 *908:A 39.9471 
5 *21:8 *715:A2 44.8357 
*END

*D_NET *22 0.00164359
*CONN
*I *956:A I *D sky130_fd_sc_hd__dlygate4sd3_1
*I *714:B I *D sky130_fd_sc_hd__and2_2
*I *879:Q O *D sky130_fd_sc_hd__dfrtp_1
*CAP
1 *956:A 0.000134493
2 *714:B 0
3 *879:Q 0
4 *22:16 0.000241171
5 *22:4 0.000375664
6 *956:A *203:12 0.000318833
7 *22:16 *107:16 0
8 *22:16 *108:10 0
9 *22:16 *191:121 0.000226495
10 *22:16 *212:16 9.87846e-05
11 *22:16 *212:24 5.68958e-05
12 *22:16 *250:10 0.000191255
*RES
1 *879:Q *22:4 23 
2 *22:4 *22:16 36.7321 