*SPEF "ieee 1481-1999"
*DESIGN "top_3d_jscan"
*DATE "11:11:11 Fri 11 11, 1111"
*VENDOR "OpenRCX"
*PROGRAM "Parallel Extraction"
*VERSION "1.0"
*DESIGN_FLOW "NAME_SCOPE LOCAL" "PIN_CAP NONE"
*DIVIDER /
*DELIMITER :
*BUS_DELIMITER []
*T_UNIT 1 NS
*C_UNIT 1 PF
*R_UNIT 1 OHM
*L_UNIT 1 HENRY

*NAME_MAP
*3 fault_flag
*4 reset_n
*5 scan_clk
*6 scan_in
*7 test_enable
*8 GTC\.capture_en
*9 GTC\.cluster_sel\[0\]
*10 GTC\.cluster_sel\[1\]
*11 GTC\.col_addr\[0\]
*12 GTC\.col_addr\[1\]
*13 GTC\.col_addr\[2\]
*14 GTC\.col_addr\[3\]
*15 GTC\.misr_t1
*16 GTC\.misr_t2
*17 GTC\.misr_t3
*18 GTC\.mode_sel\[0\]
*19 GTC\.mode_sel\[1\]
*20 GTC\.shift_en
*21 GTC\.tier_sel\[0\]
*22 GTC\.tier_sel\[1\]
*23 GTC\.tier_sel\[2\]
*24 TIER1\.LC\.scan_out
*25 TIER1\.MSS\.scan_chain\[0\]
*26 TIER1\.MSS\.scan_chain\[1\]
*27 TIER1\.MSS\.scan_chain\[2\]
*28 TIER1\.MSS\.scan_chain\[3\]
*29 TIER1\.MSS\.scan_chain\[4\]
*30 TIER1\.MSS\.scan_chain\[5\]
*31 TIER1\.MSS\.scan_chain\[6\]
*32 TIER1\.MSS\.scan_chain\[7\]
*33 TIER1\.PRAS\.scan_out
*34 TIER1\.tier_sel\[0\]
*35 TIER1\.tier_sel\[1\]
*36 TIER2\.LC\.scan_out
*37 TIER2\.MSS\.scan_chain\[0\]
*38 TIER2\.MSS\.scan_chain\[1\]
*39 TIER2\.MSS\.scan_chain\[2\]
*40 TIER2\.MSS\.scan_chain\[3\]
*41 TIER2\.MSS\.scan_chain\[4\]
*42 TIER2\.MSS\.scan_chain\[5\]
*43 TIER2\.MSS\.scan_chain\[6\]
*44 TIER2\.MSS\.scan_chain\[7\]
*45 TIER2\.PRAS\.scan_out
*46 TIER3\.LC\.scan_out
*47 TIER3\.MSS\.scan_chain\[0\]
*48 TIER3\.MSS\.scan_chain\[1\]
*49 TIER3\.MSS\.scan_chain\[2\]
*50 TIER3\.MSS\.scan_chain\[3\]
*51 TIER3\.MSS\.scan_chain\[4\]
*52 TIER3\.MSS\.scan_chain\[5\]
*53 TIER3\.MSS\.scan_chain\[6\]
*54 TIER3\.MSS\.scan_chain\[7\]
*55 TIER3\.PRAS\.scan_out
*56 _000_
*57 _001_
*58 _002_
*59 _003_
*60 _004_
*61 _005_
*62 _006_
*63 _007_
*64 _008_
*65 _009_
*66 _010_
*67 _011_
*68 _012_
*69 _013_
*70 _014_
*71 _015_
*72 _016_
*73 _017_
*74 _018_
*75 _019_
*76 _020_
*77 _021_
*78 _022_
*79 _023_
*80 _024_
*81 _025_
*82 _026_
*83 _027_
*84 _028_
*85 _029_
*86 _030_
*87 _031_
*88 _032_
*89 _033_
*90 _034_
*91 _035_
*92 _036_
*93 _037_
*94 _038_
*95 _039_
*96 _040_
*97 _041_
*98 _042_
*99 _043_
*100 _044_
*101 _045_
*102 _046_
*103 _047_
*104 _048_
*105 _049_
*106 _050_
*107 _051_
*108 _052_
*109 _053_
*110 _054_
*111 _055_
*112 _056_
*113 _057_
*114 _058_
*115 _059_
*116 _060_
*117 _061_
*118 _062_
*119 _063_
*120 _064_
*121 _065_
*122 _066_
*123 _067_
*124 _068_
*125 _069_
*126 _070_
*127 _071_
*128 _072_
*129 _073_
*130 _074_
*131 _075_
*132 _076_
*133 _077_
*134 _078_
*135 _079_
*136 _080_
*137 _081_
*138 _082_
*139 _083_
*140 _084_
*141 _085_
*142 _086_
*143 _087_
*144 _088_
*145 _089_
*146 _090_
*147 _091_
*148 _092_
*149 _093_
*150 _094_
*151 _095_
*152 _096_
*153 _097_
*154 _098_
*155 _099_
*156 _100_
*157 _101_
*158 _102_
*159 _103_
*160 _104_
*161 _105_
*162 _106_
*163 _107_
*164 _108_
*165 _109_
*166 _110_
*167 _111_
*168 _112_
*169 _113_
*170 _114_
*171 _115_
*172 _116_
*173 _117_
*174 _118_
*175 _119_
*176 capture_en
*177 clknet_0_scan_clk
*178 clknet_2_0__leaf_scan_clk
*179 clknet_2_1__leaf_scan_clk
*180 clknet_2_2__leaf_scan_clk
*181 clknet_2_3__leaf_scan_clk
*182 cluster_sel\[0\]
*183 cluster_sel\[1\]
*184 col_addr\[0\]
*185 col_addr\[1\]
*186 col_addr\[2\]
*187 col_addr\[3\]
*188 mode_sel\[0\]
*189 mode_sel\[1\]
*190 net1
*191 net10
*192 net11
*193 net12
*194 net13
*195 net14
*196 net15
*197 net16
*198 net17
*199 net18
*200 net19
*201 net2
*202 net20
*203 net21
*204 net22
*205 net23
*206 net24
*207 net25
*208 net26
*209 net27
*210 net28
*211 net29
*212 net3
*213 net30
*214 net31
*215 net32
*216 net33
*217 net34
*218 net35
*219 net36
*220 net37
*221 net38
*222 net39
*223 net4
*224 net40
*225 net41
*226 net42
*227 net43
*228 net44
*229 net45
*230 net46
*231 net47
*232 net48
*233 net49
*234 net5
*235 net50
*236 net51
*237 net52
*238 net53
*239 net54
*240 net55
*241 net56
*242 net57
*243 net58
*244 net59
*245 net6
*246 net60
*247 net61
*248 net62
*249 net7
*250 net8
*251 net9
*252 shift_en
*253 test_en
*254 tier_sel\[0\]
*255 tier_sel\[1\]
*256 tsv_scan_in
*257 FILLER_0_0_109
*258 FILLER_0_0_113
*259 FILLER_0_0_125
*260 FILLER_0_0_137
*261 FILLER_0_0_151
*262 FILLER_0_0_159
*263 FILLER_0_0_18
*264 FILLER_0_0_26
*265 FILLER_0_0_29
*266 FILLER_0_0_41
*267 FILLER_0_0_53
*268 FILLER_0_0_57
*269 FILLER_0_0_6
*270 FILLER_0_0_69
*271 FILLER_0_0_81
*272 FILLER_0_0_85
*273 FILLER_0_0_97
*274 FILLER_0_10_107
*275 FILLER_0_10_11
*276 FILLER_0_10_115
*277 FILLER_0_10_138
*278 FILLER_0_10_161
*279 FILLER_0_10_26
*280 FILLER_0_10_3
*281 FILLER_0_10_33
*282 FILLER_0_10_81
*283 FILLER_0_10_85
*284 FILLER_0_11_110
*285 FILLER_0_11_116
*286 FILLER_0_11_138
*287 FILLER_0_11_15
*288 FILLER_0_11_159
*289 FILLER_0_11_27
*290 FILLER_0_11_3
*291 FILLER_0_11_39
*292 FILLER_0_11_51
*293 FILLER_0_11_78
*294 FILLER_0_12_101
*295 FILLER_0_12_113
*296 FILLER_0_12_121
*297 FILLER_0_12_126
*298 FILLER_0_12_136
*299 FILLER_0_12_158
*300 FILLER_0_12_3
*301 FILLER_0_12_37
*302 FILLER_0_12_45
*303 FILLER_0_12_7
*304 FILLER_0_12_83
*305 FILLER_0_13_11
*306 FILLER_0_13_110
*307 FILLER_0_13_113
*308 FILLER_0_13_125
*309 FILLER_0_13_3
*310 FILLER_0_13_49
*311 FILLER_0_13_55
*312 FILLER_0_13_66
*313 FILLER_0_13_76
*314 FILLER_0_14_121
*315 FILLER_0_14_133
*316 FILLER_0_14_139
*317 FILLER_0_14_141
*318 FILLER_0_14_161
*319 FILLER_0_14_27
*320 FILLER_0_14_3
*321 FILLER_0_14_44
*322 FILLER_0_14_74
*323 FILLER_0_15_11
*324 FILLER_0_15_113
*325 FILLER_0_15_125
*326 FILLER_0_15_133
*327 FILLER_0_15_155
*328 FILLER_0_15_161
*329 FILLER_0_15_3
*330 FILLER_0_15_38
*331 FILLER_0_15_50
*332 FILLER_0_15_57
*333 FILLER_0_16_101
*334 FILLER_0_16_122
*335 FILLER_0_16_126
*336 FILLER_0_16_139
*337 FILLER_0_16_161
*338 FILLER_0_16_24
*339 FILLER_0_16_29
*340 FILLER_0_16_3
*341 FILLER_0_16_41
*342 FILLER_0_16_49
*343 FILLER_0_16_71
*344 FILLER_0_16_88
*345 FILLER_0_17_104
*346 FILLER_0_17_111
*347 FILLER_0_17_113
*348 FILLER_0_17_157
*349 FILLER_0_17_161
*350 FILLER_0_17_24
*351 FILLER_0_17_3
*352 FILLER_0_17_36
*353 FILLER_0_17_48
*354 FILLER_0_17_57
*355 FILLER_0_17_61
*356 FILLER_0_17_72
*357 FILLER_0_18_11
*358 FILLER_0_18_121
*359 FILLER_0_18_133
*360 FILLER_0_18_139
*361 FILLER_0_18_152
*362 FILLER_0_18_23
*363 FILLER_0_18_27
*364 FILLER_0_18_29
*365 FILLER_0_18_3
*366 FILLER_0_18_33
*367 FILLER_0_18_45
*368 FILLER_0_18_79
*369 FILLER_0_18_83
*370 FILLER_0_18_85
*371 FILLER_0_18_96
*372 FILLER_0_19_102
*373 FILLER_0_19_110
*374 FILLER_0_19_141
*375 FILLER_0_19_15
*376 FILLER_0_19_153
*377 FILLER_0_19_161
*378 FILLER_0_19_27
*379 FILLER_0_19_3
*380 FILLER_0_19_31
*381 FILLER_0_19_52
*382 FILLER_0_19_66
*383 FILLER_0_19_78
*384 FILLER_0_19_90
*385 FILLER_0_1_109
*386 FILLER_0_1_119
*387 FILLER_0_1_131
*388 FILLER_0_1_143
*389 FILLER_0_1_15
*390 FILLER_0_1_155
*391 FILLER_0_1_161
*392 FILLER_0_1_27
*393 FILLER_0_1_3
*394 FILLER_0_1_39
*395 FILLER_0_1_51
*396 FILLER_0_1_55
*397 FILLER_0_1_77
*398 FILLER_0_1_89
*399 FILLER_0_20_109
*400 FILLER_0_20_113
*401 FILLER_0_20_137
*402 FILLER_0_20_141
*403 FILLER_0_20_15
*404 FILLER_0_20_153
*405 FILLER_0_20_161
*406 FILLER_0_20_24
*407 FILLER_0_20_29
*408 FILLER_0_20_3
*409 FILLER_0_20_35
*410 FILLER_0_20_69
*411 FILLER_0_20_81
*412 FILLER_0_20_85
*413 FILLER_0_20_97
*414 FILLER_0_21_103
*415 FILLER_0_21_121
*416 FILLER_0_21_143
*417 FILLER_0_21_155
*418 FILLER_0_21_161
*419 FILLER_0_21_3
*420 FILLER_0_21_52
*421 FILLER_0_21_57
*422 FILLER_0_21_68
*423 FILLER_0_21_80
*424 FILLER_0_21_97
*425 FILLER_0_22_108
*426 FILLER_0_22_118
*427 FILLER_0_22_141
*428 FILLER_0_22_153
*429 FILLER_0_22_161
*430 FILLER_0_22_29
*431 FILLER_0_22_3
*432 FILLER_0_22_45
*433 FILLER_0_22_7
*434 FILLER_0_22_75
*435 FILLER_0_22_83
*436 FILLER_0_23_15
*437 FILLER_0_23_150
*438 FILLER_0_23_3
*439 FILLER_0_23_57
*440 FILLER_0_23_71
*441 FILLER_0_24_112
*442 FILLER_0_24_136
*443 FILLER_0_24_149
*444 FILLER_0_24_161
*445 FILLER_0_24_21
*446 FILLER_0_24_27
*447 FILLER_0_24_46
*448 FILLER_0_24_83
*449 FILLER_0_24_9
*450 FILLER_0_25_102
*451 FILLER_0_25_110
*452 FILLER_0_25_121
*453 FILLER_0_25_133
*454 FILLER_0_25_145
*455 FILLER_0_25_15
*456 FILLER_0_25_157
*457 FILLER_0_25_161
*458 FILLER_0_25_27
*459 FILLER_0_25_3
*460 FILLER_0_25_47
*461 FILLER_0_25_55
*462 FILLER_0_25_60
*463 FILLER_0_25_69
*464 FILLER_0_25_81
*465 FILLER_0_25_85
*466 FILLER_0_26_110
*467 FILLER_0_26_113
*468 FILLER_0_26_125
*469 FILLER_0_26_137
*470 FILLER_0_26_141
*471 FILLER_0_26_15
*472 FILLER_0_26_153
*473 FILLER_0_26_161
*474 FILLER_0_26_27
*475 FILLER_0_26_29
*476 FILLER_0_26_3
*477 FILLER_0_26_41
*478 FILLER_0_26_53
*479 FILLER_0_26_57
*480 FILLER_0_26_69
*481 FILLER_0_26_81
*482 FILLER_0_26_85
*483 FILLER_0_26_93
*484 FILLER_0_26_98
*485 FILLER_0_2_124
*486 FILLER_0_2_129
*487 FILLER_0_2_136
*488 FILLER_0_2_141
*489 FILLER_0_2_153
*490 FILLER_0_2_161
*491 FILLER_0_2_27
*492 FILLER_0_2_3
*493 FILLER_0_2_33
*494 FILLER_0_2_41
*495 FILLER_0_2_71
*496 FILLER_0_2_82
*497 FILLER_0_2_85
*498 FILLER_0_3_109
*499 FILLER_0_3_138
*500 FILLER_0_3_150
*501 FILLER_0_3_3
*502 FILLER_0_3_39
*503 FILLER_0_3_47
*504 FILLER_0_3_57
*505 FILLER_0_3_67
*506 FILLER_0_4_127
*507 FILLER_0_4_139
*508 FILLER_0_4_141
*509 FILLER_0_4_153
*510 FILLER_0_4_161
*511 FILLER_0_4_26
*512 FILLER_0_4_3
*513 FILLER_0_4_41
*514 FILLER_0_4_74
*515 FILLER_0_4_80
*516 FILLER_0_4_85
*517 FILLER_0_4_9
*518 FILLER_0_5_102
*519 FILLER_0_5_128
*520 FILLER_0_5_140
*521 FILLER_0_5_15
*522 FILLER_0_5_152
*523 FILLER_0_5_160
*524 FILLER_0_5_22
*525 FILLER_0_5_3
*526 FILLER_0_5_34
*527 FILLER_0_5_46
*528 FILLER_0_5_60
*529 FILLER_0_5_70
*530 FILLER_0_5_82
*531 FILLER_0_6_121
*532 FILLER_0_6_133
*533 FILLER_0_6_139
*534 FILLER_0_6_141
*535 FILLER_0_6_15
*536 FILLER_0_6_153
*537 FILLER_0_6_27
*538 FILLER_0_6_29
*539 FILLER_0_6_3
*540 FILLER_0_6_41
*541 FILLER_0_6_51
*542 FILLER_0_6_59
*543 FILLER_0_6_67
*544 FILLER_0_6_79
*545 FILLER_0_6_83
*546 FILLER_0_6_85
*547 FILLER_0_7_104
*548 FILLER_0_7_109
*549 FILLER_0_7_113
*550 FILLER_0_7_125
*551 FILLER_0_7_137
*552 FILLER_0_7_149
*553 FILLER_0_7_15
*554 FILLER_0_7_161
*555 FILLER_0_7_25
*556 FILLER_0_7_3
*557 FILLER_0_7_33
*558 FILLER_0_7_69
*559 FILLER_0_7_81
*560 FILLER_0_7_89
*561 FILLER_0_7_98
*562 FILLER_0_8_101
*563 FILLER_0_8_113
*564 FILLER_0_8_125
*565 FILLER_0_8_136
*566 FILLER_0_8_161
*567 FILLER_0_8_29
*568 FILLER_0_8_3
*569 FILLER_0_8_41
*570 FILLER_0_8_53
*571 FILLER_0_8_59
*572 FILLER_0_8_7
*573 FILLER_0_8_71
*574 FILLER_0_8_83
*575 FILLER_0_8_85
*576 FILLER_0_8_91
*577 FILLER_0_9_108
*578 FILLER_0_9_113
*579 FILLER_0_9_125
*580 FILLER_0_9_159
*581 FILLER_0_9_42
*582 FILLER_0_9_54
*583 FILLER_0_9_57
*584 FILLER_0_9_64
*585 FILLER_0_9_82
*586 PHY_0
*587 PHY_1
*588 PHY_10
*589 PHY_11
*590 PHY_12
*591 PHY_13
*592 PHY_14
*593 PHY_15
*594 PHY_16
*595 PHY_17
*596 PHY_18
*597 PHY_19
*598 PHY_2
*599 PHY_20
*600 PHY_21
*601 PHY_22
*602 PHY_23
*603 PHY_24
*604 PHY_25
*605 PHY_26
*606 PHY_27
*607 PHY_28
*608 PHY_29
*609 PHY_3
*610 PHY_30
*611 PHY_31
*612 PHY_32
*613 PHY_33
*614 PHY_34
*615 PHY_35
*616 PHY_36
*617 PHY_37
*618 PHY_38
*619 PHY_39
*620 PHY_4
*621 PHY_40
*622 PHY_41
*623 PHY_42
*624 PHY_43
*625 PHY_44
*626 PHY_45
*627 PHY_46
*628 PHY_47
*629 PHY_48
*630 PHY_49
*631 PHY_5
*632 PHY_50
*633 PHY_51
*634 PHY_52
*635 PHY_53
*636 PHY_6
*637 PHY_7
*638 PHY_8
*639 PHY_9
*640 TAP_100
*641 TAP_101
*642 TAP_102
*643 TAP_103
*644 TAP_104
*645 TAP_105
*646 TAP_106
*647 TAP_107
*648 TAP_108
*649 TAP_109
*650 TAP_110
*651 TAP_111
*652 TAP_112
*653 TAP_113
*654 TAP_114
*655 TAP_115
*656 TAP_116
*657 TAP_117
*658 TAP_118
*659 TAP_119
*660 TAP_120
*661 TAP_121
*662 TAP_122
*663 TAP_123
*664 TAP_124
*665 TAP_125
*666 TAP_54
*667 TAP_55
*668 TAP_56
*669 TAP_57
*670 TAP_58
*671 TAP_59
*672 TAP_60
*673 TAP_61
*674 TAP_62
*675 TAP_63
*676 TAP_64
*677 TAP_65
*678 TAP_66
*679 TAP_67
*680 TAP_68
*681 TAP_69
*682 TAP_70
*683 TAP_71
*684 TAP_72
*685 TAP_73
*686 TAP_74
*687 TAP_75
*688 TAP_76
*689 TAP_77
*690 TAP_78
*691 TAP_79
*692 TAP_80
*693 TAP_81
*694 TAP_82
*695 TAP_83
*696 TAP_84
*697 TAP_85
*698 TAP_86
*699 TAP_87
*700 TAP_88
*701 TAP_89
*702 TAP_90
*703 TAP_91
*704 TAP_92
*705 TAP_93
*706 TAP_94
*707 TAP_95
*708 TAP_96
*709 TAP_97
*710 TAP_98
*711 TAP_99
*712 _120_
*713 _121_
*714 _122_
*715 _123_
*716 _124_
*717 _125_
*718 _126_
*719 _127_
*720 _128_
*721 _129_
*722 _130_
*723 _131_
*724 _132_
*725 _133_
*726 _134_
*727 _135_
*728 _136_
*729 _137_
*730 _138_
*731 _139_
*732 _140_
*733 _141_
*734 _142_
*735 _143_
*736 _144_
*737 _145_
*738 _146_
*739 _147_
*740 _148_
*741 _149_
*742 _150_
*743 _151_
*744 _152_
*745 _153_
*746 _154_
*747 _155_
*748 _156_
*749 _157_
*750 _158_
*751 _159_
*752 _160_
*753 _161_
*754 _162_
*755 _163_
*756 _164_
*757 _165_
*758 _166_
*759 _167_
*760 _168_
*761 _169_
*762 _170_
*763 _171_
*764 _172_
*765 _173_
*766 _174_
*767 _175_
*768 _176_
*769 _177_
*770 _178_
*771 _179_
*772 _180_
*773 _181_
*774 _182_
*775 _183_
*776 _184_
*777 _185_
*778 _186_
*779 _187_
*780 _188_
*781 _189_
*782 _190_
*783 _191_
*784 _192_
*785 _193_
*786 _194_
*787 _195_
*788 _196_
*789 _197_
*790 _198_
*791 _199_
*792 _200_
*793 _201_
*794 _202_
*795 _203_
*796 _204_
*797 _205_
*798 _206_
*799 _207_
*800 _208_
*801 _209_
*802 _210_
*803 _211_
*804 _212_
*805 _213_
*806 _214_
*807 _215_
*808 _216_
*809 _217_
*810 _218_
*811 _219_
*812 _220_
*813 _221_
*814 _222_
*815 _223_
*816 _224_
*817 _225_
*818 _226_
*819 _227_
*820 _228_
*821 _229_
*822 _230_
*823 _231_
*824 _232_
*825 _233_
*826 _234_
*827 _235_
*828 _236_
*829 _237_
*830 _238_
*831 _239_
*832 _240_
*833 _241_
*834 _242_
*835 _243_
*836 _244_
*837 _245_
*838 _246_
*839 _247_
*840 _248_
*841 _249_
*842 _250_
*843 _251_
*844 _252_
*845 _253_
*846 _254_
*847 _255_
*848 _256_
*849 _257_
*850 _258_
*851 _259_
*852 _260_
*853 _261_
*854 _262_
*855 _263_
*856 _264_
*857 _265_
*858 _266_
*859 _267_
*860 _268_
*861 _269_
*862 _270_
*863 _271_
*864 _272_
*865 _273_
*866 _274_
*867 _275_
*868 _276_
*869 _277_
*870 _278_
*871 _279_
*872 _280_
*873 _281_
*874 _282_
*875 _283_
*876 _284_
*877 _285_
*878 _286_
*879 _287_
*880 _288_
*881 _289_
*882 _290_
*883 _291_
*884 _292_
*885 _293_
*886 _294_
*887 _295_
*888 _296_
*889 _297_
*890 _298_
*891 _299_
*892 _300_
*893 _301_
*894 _302_
*895 clkbuf_0_scan_clk
*896 clkbuf_2_0__f_scan_clk
*897 clkbuf_2_1__f_scan_clk
*898 clkbuf_2_2__f_scan_clk
*899 clkbuf_2_3__f_scan_clk
*900 fanout10
*901 fanout5
*902 fanout6
*903 fanout7
*904 fanout8
*905 fanout9
*906 hold1
*907 hold10
*908 hold11
*909 hold12
*910 hold13
*911 hold14
*912 hold15
*913 hold16
*914 hold17
*915 hold18
*916 hold19
*917 hold2
*918 hold20
*919 hold21
*920 hold22
*921 hold23
*922 hold24
*923 hold25
*924 hold26
*925 hold27
*926 hold28
*927 hold29
*928 hold3
*929 hold30
*930 hold31
*931 hold32
*932 hold33
*933 hold34
*934 hold35
*935 hold36
*936 hold37
*937 hold38
*938 hold39
*939 hold4
*940 hold40
*941 hold41
*942 hold42
*943 hold43
*944 hold44
*945 hold45
*946 hold46
*947 hold47
*948 hold48
*949 hold49
*950 hold5
*951 hold50
*952 hold51
*953 hold52
*954 hold6
*955 hold7
*956 hold8
*957 hold9
*958 input1
*959 input2
*960 input3
*961 output4

*PORTS
fault_flag O
reset_n I
scan_clk I
scan_in I
test_enable I

*D_NET *3 0.000619873
*CONN
*P fault_flag O
*I *961:X O *D sky130_fd_sc_hd__clkbuf_4
*CAP
1 fault_flag 0.000300175
2 *961:X 0.000300175
3 fault_flag *961:A 1.95231e-05
*RES
1 *961:X fault_flag 5.57717 
*END

*D_NET *4 0.00134172
*CONN
*P reset_n I
*I *958:A I *D sky130_fd_sc_hd__buf_1
*CAP
1 reset_n 0.00067086
2 *958:A 0.00067086
*RES
1 reset_n *958:A 15.18 
*END

*D_NET *5 0.00582079
*CONN
*P scan_clk I
*I *895:A I *D sky130_fd_sc_hd__clkbuf_16
*CAP
1 scan_clk 0.00290466
2 *895:A 0.00290466
3 *895:A *898:A 1.1477e-05
*RES
1 scan_clk *895:A 10.7108 
*END

*D_NET *6 0.00105457
*CONN
*P scan_in I
*I *959:A I *D sky130_fd_sc_hd__clkbuf_2
*CAP
1 scan_in 0.000527286
2 *959:A 0.000527286
3 *959:A *201:16 0
*RES
1 scan_in *959:A 13.095 
*END

*D_NET *7 0.000763257
*CONN
*P test_enable I
*I *960:A I *D sky130_fd_sc_hd__dlymetal6s2s_1
*CAP
1 test_enable 0.000381628
2 *960:A 0.000381628
*RES
1 test_enable *960:A 10.455 
*END

*D_NET *8 0.00942664
*CONN
*I *768:D1 I *D sky130_fd_sc_hd__o2111a_1
*I *798:D1 I *D sky130_fd_sc_hd__o2111a_1
*I *825:C I *D sky130_fd_sc_hd__and3_1
*I *888:A I *D sky130_fd_sc_hd__buf_2
*I *718:A0 I *D sky130_fd_sc_hd__mux2_1
*I *832:Q O *D sky130_fd_sc_hd__dfrtp_1
*CAP
1 *768:D1 8.85082e-05
2 *798:D1 0.000198042
3 *825:C 0.00100595
4 *888:A 0
5 *718:A0 0.000265806
6 *832:Q 0.000187548
7 *8:61 0.000352854
8 *8:40 0.00252126
9 *8:23 0.00147535
10 *8:14 0.0004797
11 *768:D1 *798:A1 3.38033e-05
12 *768:D1 *897:A 4.66108e-05
13 *798:D1 *769:B 0.00016031
14 *798:D1 *797:A1 2.75707e-05
15 *798:D1 *798:C1 0.000135237
16 *798:D1 *897:A 0.000200121
17 *825:C *767:A2 6.44134e-05
18 *825:C *767:B1 0.000148589
19 *825:C *767:B2 0.000243025
20 *825:C *797:B2 0.000153816
21 *825:C *826:A1 5.69263e-06
22 *825:C *137:29 0.000375864
23 *8:14 *718:A1 2.04923e-05
24 *8:14 *892:A 0
25 *8:40 *741:A0 6.79048e-05
26 *8:40 *804:C 3.14077e-05
27 *8:40 *841:RESET_B 0
28 *8:40 *868:CLK 0.00030393
29 *8:40 *896:A 0.000225971
30 *8:40 *18:14 0
31 *8:40 *19:10 0.000113985
32 *8:40 *117:23 0.000116208
33 *8:40 *178:10 9.20663e-05
34 *8:61 *797:A1 0.000116158
35 *8:61 *896:A 1.38481e-05
36 *8:61 *897:A 0.000104619
37 *8:61 *117:23 4.9968e-05
*RES
1 *832:Q *8:14 8.645 
2 *8:14 *718:A0 5.155 
3 *8:14 *8:23 0.45 
4 *8:23 *888:A 1.6 
5 *8:23 *8:40 23.315 
6 *8:40 *825:C 21.475 
7 *8:40 *8:61 4.145 
8 *8:61 *798:D1 9.8 
9 *8:61 *768:D1 3.01 
*END

*D_NET *9 0.00326626
*CONN
*I *890:A I *D sky130_fd_sc_hd__buf_2
*I *721:B I *D sky130_fd_sc_hd__or2_1
*I *722:B I *D sky130_fd_sc_hd__nand2_1
*I *834:Q O *D sky130_fd_sc_hd__dfrtp_1
*CAP
1 *890:A 0.000322663
2 *721:B 0.000291142
3 *722:B 9.23133e-05
4 *834:Q 0
5 *9:10 0.000921639
6 *9:4 0.000860846
7 *721:B *835:D 9.23635e-05
8 *721:B *178:71 0.000180077
9 *722:B *722:A 5.19006e-06
10 *722:B *111:6 6.62684e-05
11 *890:A *726:A 9.03066e-05
12 *890:A *891:A 0.000110791
13 *890:A *928:A 3.12855e-05
14 *890:A *190:16 7.34042e-05
15 *9:10 *834:CLK 7.25617e-05
16 *9:10 *834:RESET_B 3.06763e-05
17 *9:10 *835:D 8.33066e-06
18 *9:10 *178:71 1.64067e-05
*RES
1 *834:Q *9:4 1.6 
2 *9:4 *9:10 8.825 
3 *9:10 *722:B 5.1 
4 *9:10 *721:B 9.36 
5 *9:4 *890:A 10.445 
*END

*D_NET *10 0.0015248
*CONN
*I *928:A I *D sky130_fd_sc_hd__dlygate4sd3_1
*I *891:A I *D sky130_fd_sc_hd__buf_2
*I *835:Q O *D sky130_fd_sc_hd__dfrtp_1
*CAP
1 *928:A 7.96644e-05
2 *891:A 0.000138025
3 *835:Q 6.75877e-05
4 *10:10 0.000285277
5 *891:A *726:A 0.00013159
6 *891:A *190:16 2.21697e-05
7 *928:A *723:A 0.000158337
8 *928:A *838:RESET_B 4.66108e-05
9 *928:A *901:A 2.49909e-05
10 *928:A *190:16 3.5927e-05
11 *928:A *249:6 5.83121e-06
12 *928:A *249:19 5.05981e-05
13 *10:10 *723:B 0.000129167
14 *10:10 *105:24 0.000121659
15 *10:10 *105:26 8.52939e-05
16 *890:A *891:A 0.000110791
17 *890:A *928:A 3.12855e-05
*RES
1 *835:Q *10:10 5.79 
2 *10:10 *891:A 6.54 
3 *10:10 *928:A 6.195 
*END

*D_NET *11 0.00252142
*CONN
*I *770:A I *D sky130_fd_sc_hd__xnor2_1
*I *727:B I *D sky130_fd_sc_hd__and3_1
*I *907:A I *D sky130_fd_sc_hd__dlygate4sd3_1
*I *881:A I *D sky130_fd_sc_hd__buf_2
*I *836:Q O *D sky130_fd_sc_hd__dfrtp_1
*CAP
1 *770:A 0.000350351
2 *727:B 3.77064e-05
3 *907:A 0
4 *881:A 0.000306935
5 *836:Q 0.000233842
6 *11:30 0.00058389
7 *11:12 0.000306935
8 *11:10 0.000429675
9 *727:B *884:A 1.77665e-05
10 *770:A *13:14 0
11 *881:A *728:B1 9.28568e-05
12 *11:10 *105:18 0.000161467
*RES
1 *836:Q *11:10 6.72 
2 *11:10 *11:12 2 
3 *11:12 *881:A 6.565 
4 *11:12 *907:A 1.6 
5 *11:10 *11:30 2.655 
6 *11:30 *727:B 4.05 
7 *11:30 *770:A 8.505 
*END

*D_NET *12 0.00175535
*CONN
*I *727:C I *D sky130_fd_sc_hd__and3_1
*I *909:A I *D sky130_fd_sc_hd__dlygate4sd3_1
*I *883:A I *D sky130_fd_sc_hd__buf_2
*I *837:Q O *D sky130_fd_sc_hd__dfrtp_1
*CAP
1 *727:C 0.000292405
2 *909:A 0
3 *883:A 2.4414e-05
4 *837:Q 6.20307e-05
5 *12:19 0.000402826
6 *12:8 0.000196865
7 *727:C *727:A 0.000272482
8 *727:C *884:A 4.65229e-05
9 *727:C *212:35 0.000114643
10 *883:A *105:18 2.69153e-05
11 *12:8 *212:24 0.000117192
12 *12:19 *212:24 8.33066e-06
13 *12:19 *212:35 0.000190728
*RES
1 *837:Q *12:8 4.98 
2 *12:8 *883:A 4.05 
3 *12:8 *12:19 2.4 
4 *12:19 *909:A 3.6 
5 *12:19 *727:C 8.25 
*END

*D_NET *13 0.00244304
*CONN
*I *884:A I *D sky130_fd_sc_hd__buf_2
*I *770:B I *D sky130_fd_sc_hd__xnor2_1
*I *912:A I *D sky130_fd_sc_hd__dlygate4sd3_1
*I *730:A I *D sky130_fd_sc_hd__and2_1
*I *838:Q O *D sky130_fd_sc_hd__dfrtp_1
*CAP
1 *884:A 0.000148496
2 *770:B 0.000152931
3 *912:A 9.50528e-05
4 *730:A 4.07926e-05
5 *838:Q 0
6 *13:16 0.000135845
7 *13:14 0.000486707
8 *13:4 0.000482272
9 *730:A *731:A 8.52912e-05
10 *730:A *731:B 8.64599e-05
11 *730:A *732:B 2.21074e-05
12 *730:A *900:A 0.000235372
13 *770:B *804:A 0
14 *884:A *727:A 4.89295e-05
15 *884:A *113:8 2.88357e-05
16 *912:A *731:A 4.77757e-05
17 *912:A *900:A 0.000260222
18 *13:14 *113:8 2.16589e-05
19 *727:B *884:A 1.77665e-05
20 *727:C *884:A 4.65229e-05
21 *770:A *13:14 0
*RES
1 *838:Q *13:4 1.6 
2 *13:4 *13:14 6.11 
3 *13:14 *13:16 2 
4 *13:16 *730:A 3.775 
5 *13:16 *912:A 4.12 
6 *13:14 *770:B 6 
7 *13:4 *884:A 4.645 
*END

*D_NET *14 0.000879296
*CONN
*I *885:A I *D sky130_fd_sc_hd__buf_2
*I *955:A I *D sky130_fd_sc_hd__dlygate4sd3_1
*I *736:A I *D sky130_fd_sc_hd__nand2_1
*I *839:Q O *D sky130_fd_sc_hd__dfrtp_1
*CAP
1 *885:A 7.2008e-05
2 *955:A 0
3 *736:A 0.000113946
4 *839:Q 8.65136e-05
5 *14:21 0.0001997
6 *14:6 0.000328151
7 *736:A *736:B 7.89767e-05
8 *736:A *140:8 0
*RES
1 *839:Q *14:6 2.74 
2 *14:6 *736:A 7.85 
3 *14:6 *14:21 1.83 
4 *14:21 *955:A 1.6 
5 *14:21 *885:A 2.755 
*END

*D_NET *15 0.00180342
*CONN
*I *917:A I *D sky130_fd_sc_hd__dlygate4sd3_1
*I *746:B I *D sky130_fd_sc_hd__or3_1
*I *854:Q O *D sky130_fd_sc_hd__dfrtp_1
*CAP
1 *917:A 3.24847e-05
2 *746:B 0.000385666
3 *854:Q 0.000164743
4 *15:12 0.000582893
5 *746:B *746:C 5.05437e-05
6 *746:B *747:A1 3.43427e-05
7 *746:B *769:A 1.82667e-05
8 *746:B *769:B 0.000186368
9 *746:B *854:D 0.00012657
10 *917:A *769:B 8.56804e-05
11 *15:12 *769:B 0.000135863
12 *15:12 *866:RESET_B 0
13 *15:12 *902:A 0
*RES
1 *854:Q *15:12 7.955 
2 *15:12 *746:B 8.05 
3 *15:12 *917:A 2.665 
*END

*D_NET *16 0.00172427
*CONN
*I *906:A I *D sky130_fd_sc_hd__dlygate4sd3_1
*I *746:A I *D sky130_fd_sc_hd__or3_1
*I *866:Q O *D sky130_fd_sc_hd__dfrtp_1
*CAP
1 *906:A 0.000622515
2 *746:A 0.000215143
3 *866:Q 0
4 *16:4 0.000837658
5 *746:A *746:C 4.40812e-05
6 *906:A *866:RESET_B 0
7 *906:A *877:D 4.87485e-06
8 *906:A *902:A 0
9 *906:A *249:19 0
*RES
1 *866:Q *16:4 1.6 
2 *16:4 *746:A 8.465 
3 *16:4 *906:A 12.71 
*END

*D_NET *17 0.00209349
*CONN
*I *939:A I *D sky130_fd_sc_hd__dlygate4sd3_1
*I *746:C I *D sky130_fd_sc_hd__or3_1
*I *877:Q O *D sky130_fd_sc_hd__dfrtp_1
*CAP
1 *939:A 0.000494771
2 *746:C 0.000221533
3 *877:Q 0.000165695
4 *17:6 0.000882
5 *746:C *747:A1 5.05437e-05
6 *746:C *747:S 0
7 *939:A *877:CLK 3.90873e-06
8 *939:A *877:D 0.000127735
9 *939:A *877:RESET_B 5.26742e-05
10 *746:A *746:C 4.40812e-05
11 *746:B *746:C 5.05437e-05
*RES
1 *877:Q *17:6 3.43 
2 *17:6 *746:C 9.815 
3 *17:6 *939:A 7.84 
*END

*D_NET *18 0.00792868
*CONN
*I *740:B I *D sky130_fd_sc_hd__and2_1
*I *743:A_N I *D sky130_fd_sc_hd__and3b_1
*I *886:A I *D sky130_fd_sc_hd__buf_2
*I *801:B I *D sky130_fd_sc_hd__or3_1
*I *734:B I *D sky130_fd_sc_hd__or2_2
*I *766:B_N I *D sky130_fd_sc_hd__or2b_1
*I *737:A1 I *D sky130_fd_sc_hd__mux2_1
*I *774:A_N I *D sky130_fd_sc_hd__and3b_1
*I *840:Q O *D sky130_fd_sc_hd__dfrtp_2
*CAP
1 *740:B 5.7891e-05
2 *743:A_N 0
3 *886:A 0.000307264
4 *801:B 0.000386008
5 *734:B 0
6 *766:B_N 1.1665e-05
7 *737:A1 0
8 *774:A_N 0.000254077
9 *840:Q 0
10 *18:87 0.000384043
11 *18:64 0.000530091
12 *18:55 0.000192131
13 *18:49 0.000250479
14 *18:40 0.000457705
15 *18:14 0.000464503
16 *18:4 0.000588706
17 *740:B *739:A 0.000199833
18 *740:B *122:10 4.90227e-05
19 *766:B_N *19:21 1.08758e-05
20 *766:B_N *19:32 3.57349e-05
21 *774:A_N *737:A0 4.89295e-05
22 *774:A_N *737:S 4.58616e-05
23 *774:A_N *738:A 5.4155e-06
24 *774:A_N *840:RESET_B 0.000171068
25 *774:A_N *865:RESET_B 0
26 *774:A_N *107:63 0
27 *774:A_N *249:25 4.46731e-05
28 *801:B *801:A 0.000350432
29 *801:B *802:S 0.000393245
30 *801:B *828:B 3.85524e-05
31 *801:B *905:A 2.32724e-05
32 *801:B *118:12 0.000108289
33 *801:B *121:55 5.76055e-05
34 *886:A *737:A0 0
35 *886:A *749:A 8.23457e-05
36 *886:A *768:A2 4.37168e-05
37 *886:A *774:C 0.000106136
38 *886:A *802:A1 7.4027e-05
39 *886:A *802:S 0
40 *886:A *951:A 0.000196364
41 *886:A *118:12 0.000206123
42 *18:14 *737:A0 0.000156754
43 *18:14 *737:S 2.74662e-05
44 *18:14 *841:RESET_B 0.000203373
45 *18:40 *741:A1 6.81824e-05
46 *18:40 *741:S 9.99971e-05
47 *18:40 *19:21 1.37583e-05
48 *18:49 *739:A 3.66286e-05
49 *18:49 *19:32 0.000122337
50 *18:55 *797:B2 1.01851e-05
51 *18:55 *19:36 0.000176071
52 *18:55 *19:51 8.53113e-06
53 *18:55 *108:66 0
54 *18:64 *137:29 0.000345347
55 *18:64 *177:10 0.0001249
56 *18:64 *177:50 0.000220447
57 *18:87 *802:S 6.14776e-05
58 *18:87 *118:12 7.71367e-05
59 *8:40 *18:14 0
*RES
1 *840:Q *18:4 1.6 
2 *18:4 *18:14 8.5 
3 *18:14 *774:A_N 10.97 
4 *18:14 *737:A1 1.6 
5 *18:4 *18:40 4.86 
6 *18:40 *766:B_N 2.05 
7 *18:40 *18:49 1.485 
8 *18:49 *18:55 6.4 
9 *18:55 *734:B 1.6 
10 *18:55 *18:64 5.21 
11 *18:64 *801:B 12.48 
12 *18:64 *18:87 1.89 
13 *18:87 *886:A 11.175 
14 *18:87 *743:A_N 3.6 
15 *18:49 *740:B 3.43 
*END

*D_NET *19 0.00469814
*CONN
*I *739:A I *D sky130_fd_sc_hd__inv_2
*I *774:C I *D sky130_fd_sc_hd__and3b_1
*I *887:A I *D sky130_fd_sc_hd__buf_2
*I *743:C I *D sky130_fd_sc_hd__and3b_1
*I *734:A I *D sky130_fd_sc_hd__or2_2
*I *766:A I *D sky130_fd_sc_hd__or2b_1
*I *741:A1 I *D sky130_fd_sc_hd__mux2_1
*I *841:Q O *D sky130_fd_sc_hd__dfrtp_2
*CAP
1 *739:A 0.000164035
2 *774:C 0.000409012
3 *887:A 0
4 *743:C 0.000107769
5 *734:A 9.73191e-06
6 *766:A 7.06271e-05
7 *741:A1 4.4237e-05
8 *841:Q 3.77165e-05
9 *19:64 0.000593662
10 *19:51 0.000446552
11 *19:36 0.000231225
12 *19:32 0.000277368
13 *19:21 0.000156357
14 *19:10 0.000121711
15 *734:A *137:29 4.82863e-05
16 *734:A *177:10 4.82863e-05
17 *739:A *740:A 4.82919e-05
18 *739:A *121:16 1.68092e-05
19 *739:A *121:38 4.87465e-06
20 *739:A *121:55 9.15985e-06
21 *739:A *122:10 1.4174e-05
22 *739:A *137:12 2.49909e-05
23 *741:A1 *741:S 4.99619e-05
24 *743:C *768:C1 0.000161529
25 *774:C *737:A0 0.000167551
26 *774:C *774:B 8.73389e-06
27 *774:C *780:A 8.69583e-05
28 *774:C *118:26 8.49205e-05
29 *19:10 *117:23 0.000113985
30 *19:32 *137:12 4.66742e-05
31 *19:36 *797:B2 0.000132266
32 *19:36 *137:12 2.15594e-05
33 *19:51 *768:B1 4.18603e-06
34 *19:51 *896:A 3.60648e-06
35 *19:51 *897:A 0
36 *19:51 *108:66 0
37 *19:51 *177:10 6.57653e-06
38 *19:64 *744:S 0
39 *19:64 *749:A 0
40 *19:64 *768:B1 3.26822e-05
41 *19:64 *797:A1 0
42 *740:B *739:A 0.000199833
43 *766:B_N *19:21 1.08758e-05
44 *766:B_N *19:32 3.57349e-05
45 *886:A *774:C 0.000106136
46 *8:40 *19:10 0.000113985
47 *18:40 *741:A1 6.81824e-05
48 *18:40 *19:21 1.37583e-05
49 *18:49 *739:A 3.66286e-05
50 *18:49 *19:32 0.000122337
51 *18:55 *19:36 0.000176071
52 *18:55 *19:51 8.53113e-06
*RES
1 *841:Q *19:10 6.98 
2 *19:10 *741:A1 2.74 
3 *19:10 *19:21 0.81 
4 *19:21 *766:A 2.665 
5 *19:21 *19:32 1.485 
6 *19:32 *19:36 4.145 
7 *19:36 *734:A 4.05 
8 *19:36 *19:51 2.28 
9 *19:51 *743:C 5.085 
10 *19:51 *19:64 4.91 
11 *19:64 *887:A 1.6 
12 *19:64 *774:C 8.62 
13 *19:32 *739:A 5.275 
*END

*D_NET *20 0.00186299
*CONN
*I *892:A I *D sky130_fd_sc_hd__buf_2
*I *953:A I *D sky130_fd_sc_hd__dlygate4sd3_1
*I *954:A I *D sky130_fd_sc_hd__dlygate4sd3_1
*I *833:Q O *D sky130_fd_sc_hd__dfrtp_1
*CAP
1 *892:A 8.34312e-05
2 *953:A 0
3 *954:A 0.00015744
4 *833:Q 0
5 *20:27 0.000430677
6 *20:4 0.000504685
7 *954:A *839:RESET_B 4.66108e-05
8 *954:A *178:69 4.82919e-05
9 *954:A *234:86 5.16418e-05
10 *954:A *234:98 7.4027e-05
11 *954:A *249:19 0
12 *20:27 *178:14 0.000232258
13 *20:27 *249:19 0.000233925
14 *8:14 *892:A 0
*RES
1 *833:Q *20:4 1.6 
2 *20:4 *954:A 8.225 
3 *20:4 *20:27 9.865 
4 *20:27 *953:A 1.6 
5 *20:27 *892:A 2.755 
*END

*D_NET *21 0.00355236
*CONN
*I *715:A2 I *D sky130_fd_sc_hd__a211o_1
*I *908:A I *D sky130_fd_sc_hd__dlygate4sd3_1
*I *716:B I *D sky130_fd_sc_hd__and2_2
*I *880:Q O *D sky130_fd_sc_hd__dfstp_1
*CAP
1 *715:A2 0.000260283
2 *908:A 8.81935e-05
3 *716:B 0.000309176
4 *880:Q 0.000454413
5 *21:10 0.000439444
6 *21:8 0.000756771
7 *715:A2 *842:D 9.55518e-05
8 *715:A2 *889:A 0.000178952
9 *715:A2 *250:67 2.73857e-05
10 *716:B *889:A 7.22565e-05
11 *716:B *212:14 0.000279787
12 *716:B *212:16 8.8266e-05
13 *908:A *889:A 1.08758e-05
14 *21:8 *842:CLK 6.17173e-05
15 *21:8 *842:D 0.000181667
16 *21:8 *108:18 0.000177297
17 *21:10 *889:A 7.03219e-05
*RES
1 *880:Q *21:8 9.7425 
2 *21:8 *21:10 0.87 
3 *21:10 *716:B 9.465 
4 *21:10 *908:A 5.01 
5 *21:8 *715:A2 8.55 
*END

*D_NET *22 0.00137341
*CONN
*I *956:A I *D sky130_fd_sc_hd__dlygate4sd3_1
*I *714:B I *D sky130_fd_sc_hd__and2_2
*I *879:Q O *D sky130_fd_sc_hd__dfrtp_1
*CAP
1 *956:A 0.000110621
2 *714:B 0.000195737
3 *879:Q 0
4 *22:4 0.000306358
5 *714:B *904:A 0.000189071
6 *714:B *107:16 0
7 *714:B *108:18 0
8 *714:B *212:16 8.83654e-05
9 *714:B *212:24 5.06989e-05
10 *714:B *250:10 0.000161467
11 *956:A *831:A2 0.000271088
*RES
1 *879:Q *22:4 1.6 
2 *22:4 *714:B 10.475 
3 *22:4 *956:A 4.12 
*END

*D_NET *23 0.00599737
*CONN
*I *825:B I *D sky130_fd_sc_hd__and3_1
*I *771:B I *D sky130_fd_sc_hd__and4_1
*I *717:A2 I *D sky130_fd_sc_hd__a211o_1
*I *919:A I *D sky130_fd_sc_hd__dlygate4sd3_1
*I *800:B I *D sky130_fd_sc_hd__nand2_1
*I *878:Q O *D sky130_fd_sc_hd__dfrtp_1
*CAP
1 *825:B 0.000277894
2 *771:B 0.000321573
3 *717:A2 0.000230498
4 *919:A 4.45078e-05
5 *800:B 0.000689244
6 *878:Q 0
7 *23:49 0.000745869
8 *23:32 0.000476243
9 *23:21 0.000246975
10 *23:4 0.000792369
11 *717:A2 *713:A 2.60713e-06
12 *717:A2 *717:B1 0
13 *717:A2 *898:A 4.77757e-05
14 *717:A2 *957:A 8.28139e-05
15 *771:B *771:A 4.82863e-05
16 *771:B *825:A 0.000344758
17 *771:B *900:A 2.0514e-05
18 *771:B *191:18 2.19562e-06